Version 4
SHEET 1 1656 1220
WIRE 160 -464 112 -464
WIRE 176 -464 160 -464
WIRE -288 -416 -288 -496
WIRE -320 -400 -624 -400
WIRE 112 -400 112 -464
WIRE -128 -384 -256 -384
WIRE 80 -384 -128 -384
WIRE -320 -368 -352 -368
WIRE 256 -368 144 -368
WIRE -624 -352 -624 -400
WIRE 80 -352 48 -352
WIRE -288 -304 -288 -352
WIRE -256 -304 -288 -304
WIRE -240 -304 -256 -304
WIRE 112 -304 112 -336
WIRE -352 -256 -352 -368
WIRE -240 -256 -352 -256
WIRE -128 -256 -128 -384
WIRE -128 -256 -160 -256
WIRE -624 -240 -624 -272
WIRE 256 -240 256 -368
WIRE 384 -240 256 -240
WIRE 512 -240 480 -240
WIRE 528 -240 512 -240
WIRE 48 -208 48 -352
WIRE 112 -208 48 -208
WIRE 144 -208 112 -208
WIRE 384 -192 256 -192
WIRE 544 -192 496 -192
WIRE -352 -160 -352 -256
WIRE 144 -128 112 -128
WIRE 160 -128 144 -128
WIRE 112 -80 112 -128
WIRE 48 -64 48 -208
WIRE 80 -64 48 -64
WIRE 256 -48 256 -192
WIRE 256 -48 144 -48
WIRE -352 -32 -352 -80
WIRE 80 -32 -352 -32
WIRE 752 -32 608 -32
WIRE 896 -32 752 -32
WIRE 112 16 112 -16
WIRE 896 32 896 -32
WIRE 608 48 608 -32
WIRE -704 80 -736 80
WIRE -672 80 -704 80
WIRE -512 80 -544 80
WIRE -480 80 -512 80
WIRE -736 160 -736 80
WIRE -544 160 -544 80
WIRE 608 176 608 128
WIRE 896 176 896 112
WIRE 752 224 672 224
WIRE 832 224 752 224
WIRE -736 288 -736 240
WIRE 752 320 752 224
WIRE -544 336 -544 240
WIRE -448 336 -544 336
WIRE -448 368 -448 336
WIRE 608 368 608 272
WIRE 688 368 608 368
WIRE -544 416 -544 336
WIRE 752 448 752 416
WIRE 352 464 256 464
WIRE 432 464 352 464
WIRE 256 496 256 464
WIRE 896 512 896 272
WIRE 1184 512 896 512
WIRE 1360 512 1184 512
WIRE -544 576 -544 496
WIRE -544 576 -592 576
WIRE 432 592 432 464
WIRE 256 640 256 576
WIRE 368 640 256 640
WIRE -352 720 -352 -32
WIRE 256 720 256 640
WIRE 608 720 608 368
WIRE 896 720 896 512
WIRE 320 768 -416 768
WIRE 432 768 432 688
WIRE 432 768 320 768
WIRE 544 768 432 768
WIRE 832 768 544 768
WIRE 1360 800 1360 512
WIRE 256 848 256 816
WIRE -352 864 -352 816
WIRE 608 912 608 816
WIRE 896 912 896 816
WIRE 1360 928 1360 864
WIRE -352 1040 -352 944
WIRE 608 1040 608 992
WIRE 896 1040 896 992
WIRE 256 1056 256 928
WIRE 496 1120 464 1120
WIRE 560 1120 496 1120
WIRE 784 1120 752 1120
WIRE 848 1120 784 1120
WIRE 608 1200 608 1136
WIRE 896 1200 896 1136
FLAG 1360 928 0
FLAG -736 288 0
FLAG -624 -240 0
FLAG -704 80 Vcc
FLAG -256 -304 Vreg
FLAG 160 -464 Vreg
FLAG 144 -128 Vreg
FLAG 512 -240 Vq
FLAG 1184 512 Vo
FLAG 112 -208 Vo
FLAG 752 448 0
FLAG 752 -32 Vcc
FLAG 896 1200 0
FLAG 784 1120 Vq
FLAG 256 1056 0
FLAG 352 464 Vcc
FLAG -352 1040 0
FLAG -512 80 Vreg
FLAG -448 368 0
FLAG -592 576 Vss
FLAG 608 1200 0
FLAG 496 1120 Vq_neg
FLAG 544 -192 Vq_neg
FLAG 112 16 0
FLAG 112 -304 0
FLAG -288 -496 0
SYMBOL res -368 -176 R0
SYMATTR InstName R1
SYMATTR Value 1k
SYMBOL res -144 -272 R90
WINDOW 0 0 56 VBottom 2
WINDOW 3 32 56 VTop 2
SYMATTR InstName R2
SYMATTR Value 1k
SYMBOL cap 1344 800 R0
SYMATTR InstName C1
SYMATTR Value 680p
SYMBOL voltage -624 -368 R0
WINDOW 123 0 0 Left 2
WINDOW 39 0 0 Left 2
SYMATTR InstName V1
SYMATTR Value 5
SYMBOL voltage -736 144 R0
WINDOW 123 0 0 Left 2
WINDOW 39 0 0 Left 2
SYMATTR InstName V2
SYMATTR Value 40
SYMBOL Digital\\srflop 432 -288 R0
WINDOW 3 -40 28 Left 2
SYMATTR Value Vhigh=5
SYMATTR InstName A1
SYMBOL nmos 848 1040 R0
SYMATTR InstName M1
SYMBOL pnp 832 272 M180
SYMATTR InstName Q1
SYMATTR Value BC557B
SYMBOL pnp 672 272 R180
SYMATTR InstName Q2
SYMATTR Value BC557B
SYMBOL pnp 688 416 M180
SYMATTR InstName Q3
SYMATTR Value BC557B
SYMBOL res 592 32 R0
SYMATTR InstName R3
SYMATTR Value 100
SYMBOL npn 832 720 R0
SYMATTR InstName Q4
SYMATTR Value BC547B
SYMBOL npn 544 720 R0
SYMATTR InstName Q5
SYMATTR Value BC547B
SYMBOL npn 320 720 M0
SYMATTR InstName Q6
SYMATTR Value BC547B
SYMBOL npn 368 592 R0
SYMATTR InstName Q7
SYMATTR Value BC547B
SYMBOL res 240 480 R0
SYMATTR InstName R5
SYMATTR Value 18k
SYMBOL res 240 832 R0
SYMATTR InstName R6
SYMATTR Value 100
SYMBOL npn -416 720 R0
SYMATTR InstName Q8
SYMATTR Value BC547B
SYMBOL res -368 848 R0
SYMATTR InstName R7
SYMATTR Value 100
SYMBOL voltage -544 144 R0
WINDOW 123 0 0 Left 2
WINDOW 39 0 0 Left 2
SYMATTR InstName V3
SYMATTR Value 12
SYMBOL Opamps\\opamp2 -288 -320 M180
SYMATTR InstName U1
SYMATTR Value TL081
SYMBOL Opamps\\opamp2 112 -432 R0
SYMATTR InstName U2
SYMATTR Value TL081
SYMBOL Opamps\\opamp2 112 -112 R0
SYMATTR InstName U3
SYMATTR Value TL081
SYMBOL voltage -544 400 R0
WINDOW 123 0 0 Left 2
WINDOW 39 0 0 Left 2
SYMATTR InstName V4
SYMATTR Value 12
SYMBOL res 880 896 R0
SYMATTR InstName R8
SYMATTR Value 100
SYMBOL nmos 560 1040 R0
SYMATTR InstName M2
SYMBOL res 592 896 R0
SYMATTR InstName R4
SYMATTR Value 100
SYMBOL res 880 16 R0
SYMATTR InstName R9
SYMATTR Value 100
TEXT -1072 -56 Left 2 !.tran 0 60u 20u
TEXT -1072 -32 Left 2 !.model NMOS NMOS(Vto=1,Kp=2e-3)
TEXT -1064 -88 Left 2 !.inc TL081.301
TEXT -184 568 Left 2 !.FOUR 100khz 10 100 V(Vo)
