Version 4
SHEET 1 7252 3776
WIRE 1136 -928 1136 -960
WIRE 1312 -928 1312 -960
WIRE 1472 -928 1472 -960
WIRE 1136 -784 1136 -848
WIRE 1312 -784 1312 -848
WIRE 1312 -784 1136 -784
WIRE 1472 -784 1472 -848
WIRE 1472 -784 1312 -784
WIRE 1600 -784 1472 -784
WIRE 1136 -752 1136 -784
WIRE 1312 -752 1312 -784
WIRE 1472 -752 1472 -784
WIRE 1600 -736 1600 -784
WIRE 1136 -640 1136 -672
WIRE 1312 -640 1312 -672
WIRE 1472 -640 1472 -672
WIRE 3552 -288 3392 -288
WIRE 3680 -288 3552 -288
WIRE 3072 -240 3056 -240
WIRE 3200 -240 3152 -240
WIRE 3280 -240 3264 -240
WIRE 3392 -240 3392 -288
WIRE 1456 -192 1456 -240
WIRE 3552 -192 3552 -288
WIRE 3056 -160 3056 -240
WIRE 3056 -160 2992 -160
WIRE 3152 -160 3056 -160
WIRE 3280 -160 3280 -240
WIRE 3280 -160 3232 -160
WIRE 3344 -160 3280 -160
WIRE 1312 -112 1312 -160
WIRE 1280 -96 816 -96
WIRE 3280 -96 3280 -160
WIRE 1456 -80 1456 -112
WIRE 1456 -80 1344 -80
WIRE 1680 -80 1456 -80
WIRE 1872 -80 1760 -80
WIRE 1952 -80 1872 -80
WIRE 2176 -80 1952 -80
WIRE 2624 -80 2416 -80
WIRE 2720 -80 2624 -80
WIRE 2848 -80 2720 -80
WIRE 576 -64 528 -64
WIRE 1280 -64 576 -64
WIRE 1872 -48 1872 -80
WIRE 2512 -48 2416 -48
WIRE 2528 -48 2512 -48
WIRE 2624 -48 2624 -80
WIRE 2720 -48 2720 -80
WIRE 1344 -16 1344 -64
WIRE 2080 -16 2064 -16
WIRE 2176 -16 2080 -16
WIRE 2448 -16 2416 -16
WIRE 528 0 528 -64
WIRE 2176 16 1968 16
WIRE 1312 32 1312 -48
WIRE 2448 32 2448 -16
WIRE 2624 32 2624 16
WIRE 2624 32 2448 32
WIRE 2720 32 2720 16
WIRE 2720 32 2624 32
WIRE 3280 32 3280 -32
WIRE 3280 32 2720 32
WIRE 3392 32 3392 -144
WIRE 3392 32 3280 32
WIRE 3552 32 3552 -128
WIRE 3552 32 3392 32
WIRE 3872 32 3552 32
WIRE 4032 32 3952 32
WIRE 4864 32 4032 32
WIRE 4912 32 4864 32
WIRE 1968 48 1968 16
WIRE 2176 48 1968 48
WIRE 4912 48 4912 32
WIRE 2080 80 2064 80
WIRE 2176 80 2080 80
WIRE 2624 80 2416 80
WIRE 2848 80 2848 -16
WIRE 3072 80 3056 80
WIRE 3200 80 3152 80
WIRE 3280 80 3264 80
WIRE 3392 80 3392 32
WIRE 4032 80 4032 32
WIRE 1872 96 1872 16
WIRE 528 112 528 80
WIRE 2512 112 2416 112
WIRE 2528 112 2512 112
WIRE 2080 144 2064 144
WIRE 2176 144 2080 144
WIRE 2448 144 2416 144
WIRE 3056 160 3056 80
WIRE 3056 160 2992 160
WIRE 3152 160 3056 160
WIRE 3280 160 3280 80
WIRE 3280 160 3232 160
WIRE 3344 160 3280 160
WIRE 2064 176 2064 144
WIRE 4912 176 4912 128
WIRE 4032 192 4032 144
WIRE 2624 208 2624 80
WIRE 2624 208 2544 208
WIRE 2720 208 2624 208
WIRE 2848 208 2848 160
WIRE 2848 208 2720 208
WIRE 3280 224 3280 160
WIRE 3552 224 3552 32
WIRE 2848 240 2848 208
WIRE 2544 256 2544 208
WIRE 2624 256 2624 208
WIRE 2720 256 2720 208
WIRE 1968 272 1968 48
WIRE 2064 272 2064 240
WIRE 2448 352 2448 144
WIRE 2544 352 2544 320
WIRE 2544 352 2448 352
WIRE 2624 352 2624 320
WIRE 2624 352 2544 352
WIRE 2720 352 2720 320
WIRE 2720 352 2624 352
WIRE 2848 352 2848 320
WIRE 2848 352 2720 352
WIRE 3280 352 3280 288
WIRE 3280 352 2848 352
WIRE 3392 352 3392 176
WIRE 3392 352 3280 352
WIRE 3552 352 3552 288
WIRE 3552 352 3392 352
WIRE 3680 352 3552 352
WIRE 1280 416 1184 416
WIRE 1328 416 1280 416
WIRE 1344 416 1328 416
WIRE 1280 448 1280 416
WIRE 1184 464 1184 416
WIRE 1184 544 1184 528
WIRE 1280 544 1280 528
WIRE 752 784 720 784
WIRE 816 784 816 -96
WIRE 816 784 752 784
WIRE 1504 944 1504 864
WIRE 1728 944 1696 944
WIRE 3136 960 3136 864
WIRE 3136 960 2800 960
WIRE 3376 960 3136 960
WIRE 1728 992 1728 944
WIRE 2800 1024 2800 960
WIRE 3136 1024 3136 960
WIRE 1696 1040 1696 944
WIRE 1504 1056 1504 1024
WIRE 1664 1056 1504 1056
WIRE 1856 1072 1728 1072
WIRE 1504 1088 1504 1056
WIRE 1664 1088 1632 1088
WIRE 2224 1088 2224 1024
WIRE 1696 1152 1696 1104
WIRE 2800 1152 2800 1104
WIRE 3136 1152 3136 1104
WIRE 3376 1152 3376 960
WIRE 2096 1168 2096 1136
WIRE 1856 1184 1856 1072
WIRE 2064 1184 1856 1184
WIRE 1504 1200 1504 1168
WIRE 2224 1200 2224 1168
WIRE 2224 1200 2128 1200
WIRE 2640 1200 2224 1200
WIRE 2928 1200 2864 1200
WIRE 3072 1200 2928 1200
WIRE 3312 1200 3072 1200
WIRE 1632 1216 1632 1088
WIRE 1696 1216 1632 1216
WIRE 1856 1216 1856 1184
WIRE 1856 1216 1776 1216
WIRE 2064 1216 2016 1216
WIRE 2096 1248 2096 1232
WIRE 2128 1248 2128 1216
WIRE 2128 1248 2096 1248
WIRE 1632 1264 1632 1216
WIRE 2096 1264 2096 1248
WIRE 2928 1280 2928 1200
WIRE 3136 1296 3136 1248
WIRE 2016 1312 2016 1216
WIRE 2016 1312 1936 1312
WIRE 2800 1328 2800 1248
WIRE 2864 1328 2800 1328
WIRE 2096 1344 2096 1328
WIRE 3376 1344 3376 1248
WIRE 3376 1344 3200 1344
WIRE 2016 1360 2016 1312
WIRE 2064 1360 2016 1360
WIRE 3888 1360 3840 1360
WIRE 2224 1376 2128 1376
WIRE 2384 1376 2224 1376
WIRE 1632 1392 1632 1344
WIRE 2064 1392 1632 1392
WIRE 2384 1392 2384 1376
WIRE 2400 1392 2384 1392
WIRE 2432 1392 2416 1392
WIRE 2448 1392 2432 1392
WIRE 2480 1392 2448 1392
WIRE 2576 1392 2544 1392
WIRE 2592 1392 2576 1392
WIRE 2608 1392 2592 1392
WIRE 2640 1392 2640 1200
WIRE 2640 1392 2624 1392
WIRE 3888 1392 3888 1360
WIRE 2928 1408 2928 1376
WIRE 2096 1424 2096 1408
WIRE 2128 1424 2128 1392
WIRE 2128 1424 2096 1424
WIRE 2224 1424 2224 1376
WIRE 2384 1424 2384 1392
WIRE 2400 1424 2400 1392
WIRE 2416 1424 2416 1392
WIRE 2432 1424 2432 1392
WIRE 2448 1424 2448 1392
WIRE 2576 1424 2576 1392
WIRE 2592 1424 2592 1392
WIRE 2608 1424 2608 1392
WIRE 2624 1424 2624 1392
WIRE 2640 1424 2640 1392
WIRE 2096 1440 2096 1424
WIRE 1328 1456 1328 1408
WIRE 3376 1456 3376 1344
WIRE 3840 1456 3840 1360
WIRE 3136 1472 3136 1392
WIRE 3200 1472 3136 1472
WIRE 3600 1472 3568 1472
WIRE 3808 1472 3600 1472
WIRE 3952 1488 3872 1488
WIRE 4128 1488 3952 1488
WIRE 4272 1488 4192 1488
WIRE 3808 1504 3696 1504
WIRE 2432 1552 2432 1488
WIRE 2480 1552 2544 1392
WIRE 2480 1552 2432 1552
WIRE 2544 1552 2480 1392
WIRE 2624 1552 2624 1488
WIRE 2624 1552 2544 1552
WIRE 2800 1552 2800 1328
WIRE 3136 1552 3136 1472
WIRE 3568 1552 3568 1472
WIRE 2224 1568 2224 1504
WIRE 3840 1584 3840 1520
WIRE 1488 1600 1488 1552
WIRE 3200 1600 2864 1600
WIRE 3376 1600 3376 1536
WIRE 3376 1600 3200 1600
WIRE 4272 1616 4272 1488
WIRE 2432 1632 2432 1552
WIRE 2624 1632 2624 1552
WIRE 1328 1648 1328 1536
WIRE 1424 1648 1328 1648
WIRE 2432 1648 2432 1632
WIRE 2624 1648 2624 1632
WIRE 3568 1648 3568 1616
WIRE 3696 1696 3696 1504
WIRE 3952 1696 3952 1488
WIRE 3952 1696 3696 1696
WIRE 1328 1712 1328 1648
WIRE 1632 1712 1632 1392
WIRE 2800 1712 2800 1648
WIRE 3136 1712 3136 1648
WIRE 3376 1712 3376 1600
WIRE 4272 1712 4272 1696
WIRE 1488 1760 1488 1696
WIRE 1488 1760 1392 1760
WIRE 1568 1760 1488 1760
WIRE 2736 1760 1568 1760
WIRE 3200 1760 2736 1760
WIRE 3312 1760 3200 1760
WIRE 2800 1840 2800 1808
WIRE 3136 1840 3136 1808
WIRE 1328 1856 1328 1808
WIRE 1632 1856 1632 1808
WIRE 3376 1856 3376 1808
WIRE 1328 1984 1328 1936
WIRE 1632 1984 1632 1936
WIRE 2800 2000 2800 1920
WIRE 3136 2000 3136 1920
WIRE 2752 2080 2640 2080
WIRE 3360 2080 3184 2080
WIRE 2800 2160 2800 2096
WIRE 3136 2160 3136 2096
FLAG 4032 192 0
FLAG 4912 176 0
FLAG 3680 352 VEE
FLAG 3680 -288 VCC
FLAG 1136 -960 VCC
FLAG 1136 -640 VEE
FLAG 1472 -960 5V
FLAG 528 112 0
FLAG 1472 -640 -5V
FLAG 1968 272 0
FLAG 2080 -16 5V
FLAG 2080 144 5V
FLAG 2512 -48 HO
FLAG 2512 112 LO
FLAG 2992 -160 HO
FLAG 2992 160 LO
FLAG 1184 544 0
FLAG 1280 544 0
FLAG 1600 -736 0
FLAG 4864 32 Vo
FLAG 2080 80 DT
FLAG 1328 416 DT
FLAG 1872 96 0
FLAG 1952 -80 PWM-In
FLAG 2064 272 0
FLAG 1312 -640 -15V
FLAG 1312 -960 15V
FLAG 1936 1312 Vcap
FLAG 1504 1200 0
FLAG 1328 1984 0
FLAG 1632 1984 0
FLAG 2928 1408 0
FLAG 2800 2160 0
FLAG 3136 2160 0
FLAG 3376 1856 0
FLAG 3568 1648 0
FLAG 3200 1472 Vcap
FLAG 3600 1472 Vcap
FLAG 2624 1632 Charge
FLAG 2432 1632 Discharge
FLAG 3360 2080 Discharge
FLAG 2640 2080 Charge
FLAG 1328 1408 VCC
FLAG 1488 1552 15V
FLAG 2224 1024 5V
FLAG 2224 1568 5V
FLAG 2096 1136 15V
FLAG 2096 1328 15V
FLAG 2096 1264 0
FLAG 2096 1440 0
FLAG 1728 992 0
FLAG 1696 1152 15V
FLAG 3136 864 15V
FLAG 1504 864 15V
FLAG 3840 1584 15V
FLAG 4272 1712 0
FLAG 3888 1392 0
FLAG 1312 -160 5V
FLAG 1312 32 -5V
FLAG 1344 -16 0
FLAG 1456 -240 5V
FLAG 576 -64 Vsin
FLAG 752 784 Vtriang
FLAG 4272 1488 Vtriang
SYMBOL res 2832 64 R0
SYMATTR InstName R-BOOT
SYMATTR Value 10
SYMBOL diode 2864 -16 R180
WINDOW 0 -45 51 Left 2
WINDOW 3 -101 5 Left 2
SYMATTR InstName D3
SYMATTR Value MURS120
SYMBOL cap 2608 -48 R0
WINDOW 3 39 42 Top 2
WINDOW 0 0 8 Left 2
SYMATTR Value 1µ
SYMATTR InstName C-BOOT
SYMBOL nmos 3344 -240 R0
SYMATTR InstName M1
SYMATTR Value PHB27NQ10T
SYMATTR Prefix X
SYMBOL nmos 3344 80 R0
SYMATTR InstName M2
SYMATTR Value PHB27NQ10T
SYMATTR Prefix X
SYMBOL cap 2608 256 R0
WINDOW 0 -19 0 Left 2
SYMATTR InstName C7
SYMATTR Value 10µ
SYMBOL ind 3856 48 R270
WINDOW 0 32 56 VTop 2
WINDOW 3 5 56 VBottom 2
SYMATTR InstName Lf
SYMATTR Value 33µ
SYMBOL cap 4016 80 R0
SYMATTR InstName Cf
SYMATTR Value 300n
SYMBOL res 4896 32 R0
SYMATTR InstName RL
SYMATTR Value 8
SYMBOL voltage 1136 -944 R0
WINDOW 123 0 0 Left 2
WINDOW 39 0 0 Left 2
SYMATTR InstName VCC
SYMATTR Value 30
SYMBOL voltage 1136 -768 R0
WINDOW 123 0 0 Left 2
WINDOW 39 0 0 Left 2
SYMATTR InstName VSS
SYMATTR Value 30
SYMBOL voltage 1472 -944 R0
SYMATTR InstName V1
SYMATTR Value 5
SYMBOL voltage 528 -16 R0
WINDOW 3 -239 31 Left 2
WINDOW 0 -131 3 Left 2
WINDOW 123 0 0 Left 0
WINDOW 39 0 0 Left 0
SYMATTR Value SINE(0 {vin} 1k)
SYMATTR InstName SENOIDAL
SYMBOL voltage 1472 -768 R0
WINDOW 0 24 96 Left 2
WINDOW 3 24 16 Left 2
WINDOW 123 0 0 Left 0
WINDOW 39 0 0 Left 0
SYMATTR InstName V2
SYMATTR Value 5
SYMBOL UCC20520 2288 32 R0
SYMATTR InstName U4
SYMBOL voltage 2848 224 R0
WINDOW 123 0 0 Left 2
WINDOW 39 0 0 Left 2
SYMATTR InstName V3
SYMATTR Value 12
SYMBOL cap 1168 464 R0
SYMATTR InstName C3
SYMATTR Value 2.2n
SYMBOL res 1264 432 R0
SYMATTR InstName R25
SYMATTR Value 2.2k
SYMBOL res 1776 -96 R90
WINDOW 0 0 56 VBottom 2
WINDOW 3 32 56 VTop 2
SYMATTR InstName R26
SYMATTR Value 51
SYMBOL cap 1856 -48 R0
SYMATTR InstName C4
SYMATTR Value 33p
SYMBOL cap 2048 176 R0
SYMATTR InstName C5
SYMATTR Value 1µ
SYMBOL cap 2704 -48 R0
WINDOW 0 5 8 Left 2
SYMATTR InstName C9
SYMATTR Value 100n
SYMBOL cap 2704 256 R0
SYMATTR InstName C8
SYMATTR Value 220n
SYMBOL cap 2528 256 R0
WINDOW 0 -27 -4 Left 2
SYMATTR InstName C6
SYMATTR Value 10µ
SYMBOL res 3248 144 R90
WINDOW 0 0 56 VBottom 2
WINDOW 3 32 56 VTop 2
SYMATTR InstName R28
SYMATTR Value 3.3
SYMBOL res 3248 -176 R90
WINDOW 0 0 56 VBottom 2
WINDOW 3 32 56 VTop 2
SYMATTR InstName R30
SYMATTR Value 3.3
SYMBOL diode 3264 64 R90
WINDOW 0 0 32 VBottom 2
WINDOW 3 32 32 VTop 2
SYMATTR InstName D5
SYMATTR Value MURS320
SYMBOL res 3168 64 R90
WINDOW 0 0 56 VBottom 2
WINDOW 3 32 56 VTop 2
SYMATTR InstName R27
SYMATTR Value 1.2
SYMBOL res 3168 -256 R90
WINDOW 0 0 56 VBottom 2
WINDOW 3 32 56 VTop 2
SYMATTR InstName R29
SYMATTR Value 1.2
SYMBOL diode 3264 -256 R90
WINDOW 0 0 32 VBottom 2
WINDOW 3 32 32 VTop 2
SYMATTR InstName D4
SYMATTR Value MURS320
SYMBOL cap 3264 224 R0
SYMATTR InstName C11
SYMATTR Value 1n
SYMBOL cap 3264 -96 R0
SYMATTR InstName C10
SYMATTR Value 1n
SYMBOL voltage 1312 -944 R0
WINDOW 123 0 0 Left 0
WINDOW 39 0 0 Left 0
SYMATTR InstName V5
SYMATTR Value 15
SYMBOL voltage 1312 -768 R0
WINDOW 123 0 0 Left 0
WINDOW 39 0 0 Left 0
SYMATTR InstName V6
SYMATTR Value 15
SYMBOL xcomp_x11 2096 1136 R0
SYMATTR InstName U1
SYMATTR Value LM311
SYMBOL xcomp_x11 2096 1312 R0
SYMATTR InstName U2
SYMATTR Value LM311
SYMBOL res 1616 1248 R0
SYMATTR InstName R1
SYMATTR Value 560
SYMBOL res 1792 1200 R90
WINDOW 0 0 56 VBottom 2
WINDOW 3 32 56 VTop 2
SYMATTR InstName R2
SYMATTR Value 560
SYMBOL Opamps\\opamp2 1696 1136 M180
SYMATTR InstName U3
SYMATTR Value TL082
SYMBOL res 1488 1072 R0
SYMATTR InstName R3
SYMATTR Value 1Meg
SYMBOL res 1488 928 R0
SYMATTR InstName R4
SYMATTR Value 1Meg
SYMBOL npn 1568 1712 R0
SYMATTR InstName Q1
SYMATTR Value BC847C
SYMBOL npn 1392 1712 M0
SYMATTR InstName Q2
SYMATTR Value BC847C
SYMBOL npn 1424 1600 R0
SYMATTR InstName Q3
SYMATTR Value BC847C
SYMBOL res 1312 1440 R0
SYMATTR InstName R5
SYMATTR Value 12k
SYMBOL res 1312 1840 R0
SYMATTR InstName R6
SYMATTR Value 100
SYMBOL res 1616 1840 R0
SYMATTR InstName R7
SYMATTR Value 100
SYMBOL res 2208 1072 R0
SYMATTR InstName R8
SYMATTR Value 1k
SYMBOL res 2208 1408 R0
SYMATTR InstName R9
SYMATTR Value 1k
SYMBOL Digital\\or 2352 1456 M90
WINDOW 3 -8 36 Left 2
SYMATTR Value Vhigh=5  td=11n
SYMATTR InstName A1
SYMBOL Digital\\or 2544 1456 M90
WINDOW 3 -8 36 Left 2
SYMATTR Value Vhigh=5  td=11n
SYMATTR InstName A2
SYMBOL npn 2736 1712 R0
SYMATTR InstName Q4
SYMATTR Value BC847C
SYMBOL npn 3200 1712 M0
SYMATTR InstName Q5
SYMATTR Value BC847C
SYMBOL npn 2864 1552 M0
SYMATTR InstName Q6
SYMATTR Value BC847C
SYMBOL npn 3200 1552 M0
SYMATTR InstName Q7
SYMATTR Value BC847C
SYMBOL pnp 2864 1248 R180
SYMATTR InstName Q8
SYMATTR Value BC857C
SYMBOL pnp 3200 1392 R180
SYMATTR InstName Q9
SYMATTR Value BC857C
SYMBOL pnp 2864 1376 M180
SYMATTR InstName Q10
SYMATTR Value BC857C
SYMBOL pnp 3312 1808 M180
SYMATTR InstName Q11
SYMATTR Value BC857C
SYMBOL pnp 3072 1248 M180
SYMATTR InstName Q12
SYMATTR Value BC857C
SYMBOL res 3360 1440 R0
SYMATTR InstName R10
SYMATTR Value 3.3k
SYMBOL npn 3312 1152 R0
SYMATTR InstName BC1
SYMBOL res 2784 1008 R0
SYMATTR InstName R11
SYMATTR Value 100
SYMBOL res 3120 1008 R0
SYMATTR InstName R12
SYMATTR Value 100
SYMBOL res 2784 1824 R0
SYMATTR InstName R13
SYMATTR Value 100
SYMBOL res 3120 1824 R0
SYMATTR InstName R14
SYMATTR Value 100
SYMBOL nmos 2752 2000 R0
SYMATTR InstName M3
SYMATTR Value BS170
SYMBOL nmos 3184 2000 M0
SYMATTR InstName M4
SYMATTR Value BS170
SYMBOL cap 3552 1552 R0
SYMATTR InstName C1
SYMATTR Value 1.8n
SYMBOL Opamps\\opamp2 3840 1552 M180
SYMATTR InstName U5
SYMATTR Value TL082
SYMBOL res 4256 1600 R0
SYMATTR InstName R15
SYMATTR Value 1.8k
SYMBOL cap 4192 1472 R90
WINDOW 0 0 32 VBottom 2
WINDOW 3 32 32 VTop 2
SYMATTR InstName C2
SYMATTR Value 1µ
SYMATTR SpiceLine IC=-7.5
SYMBOL xcomp_x11 1312 -144 R0
SYMATTR InstName U6
SYMATTR Value LM311
SYMBOL res 1440 -208 R0
SYMATTR InstName R16
SYMATTR Value 1k
TEXT 2032 -848 Left 2 !.tran 0 11m 1m 1n uic
TEXT 2032 -656 Left 2 !.include UCC20520.301
TEXT 992 -1128 Left 2 ;Fuentes
TEXT 2024 -744 Left 2 ;Bibliotecas
TEXT 4784 -176 Left 6 ;Salida
TEXT 1240 328 Left 2 ;Dead-Time
TEXT 1208 176 Left 4 ;Generador PWM
TEXT 2024 320 Left 2 ;Tantalio > 1u, 50V
TEXT 2024 344 Left 2 ;Hoja de datos, página 28
TEXT 2472 -296 Left 2 ;C-BOOT > (Qg + Ivdd/fsw)/0.5
TEXT 2472 -328 Left 2 ;Bootstrap
TEXT 2472 -272 Left 2 ;1u, 50V
TEXT 2472 -248 Left 2 ;Lo mas cerca posible de Vdd, Vss
TEXT 2472 -224 Left 2 ;C-AC para reducir impedancia en AC
TEXT 2472 -200 Left 2 ;Hoja de datos, página 28
TEXT 2456 488 Left 2 ;Cvdd tambien entrega corriente a VDDA a traves de D1
TEXT 2456 512 Left 2 ;C-VDDB: 50V, 10u MLCC\nC-VDDB2: 50V, 220n MLCC
TEXT 2456 568 Left 2 ;C-LONG: 50V, 10u Electrolitico o Tantalio. \nSolo es necesario si las fuentes estan lejos de VDDB
TEXT 1672 184 Left 2 ;Filtro para ruido de PCB
TEXT 2456 624 Left 2 ;Hoja de datos, página 29
TEXT 1672 208 Left 2 ;Hoja de datos, página 24
TEXT 3952 312 Left 4 ;Filtro
TEXT 2032 -688 Left 2 !.include PHB27NQ10T.lib
TEXT 2032 -624 Left 2 !.include BS170.301\n.include LM311.301\n.include TL082.301
TEXT 2032 -880 Left 2 !.step param vin list 1.1 0.2
TEXT 2032 -1104 Left 2 ;Directivas SPICE
TEXT 1072 2176 Left 6 ;Generador de onda triangular
TEXT 336 -232 Left 6 ;Entrada
TEXT 3664 608 Left 6 ;Etapa de salida
TEXT 2032 -912 Left 2 !.four 1k 9 -1  V(vo)
TEXT 2264 -912 Left 2 ;Calcular distorsion para 1k, 9 armonicos, durante toda la simulacion (-1)
TEXT 2040 -1048 Left 2 !.options numdgt = 15
TEXT 2336 -1048 Left 2 ;Doble precision
TEXT 2040 -1016 Left 2 !.options plotwinsize = 0
TEXT 2352 -1016 Left 2 ;Deshabilitar la compresion
LINE Normal 2560 48 2560 -144 2
LINE Normal 2784 48 2560 48 2
LINE Normal 2784 -144 2784 48 2
LINE Normal 2928 -144 2784 -144 2
LINE Normal 2928 -368 2928 -144 2
LINE Normal 2448 -368 2928 -368 2
LINE Normal 2448 -144 2448 -368 2
LINE Normal 2560 -144 2448 -144 2
LINE Normal 2512 432 2512 192 2
LINE Normal 2416 432 2512 432 2
LINE Normal 2416 640 2416 432 2
LINE Normal 3104 640 2416 640 2
LINE Normal 3104 448 3104 640 2
LINE Normal 3104 432 3104 448 2
LINE Normal 2784 432 3104 432 2
LINE Normal 2784 176 2784 432 2
LINE Normal 2512 176 2784 176 2
LINE Normal 2512 192 2512 176 2
RECTANGLE Normal 944 -1152 1696 -496
RECTANGLE Normal 2816 -768 2000 -480
RECTANGLE Normal 5168 480 4672 -352
RECTANGLE Normal 1424 640 1152 304 2
RECTANGLE Normal 2336 384 2016 160 2
RECTANGLE Normal 1952 224 1648 -176 2
RECTANGLE Normal 4688 -800 2000 -1152
RECTANGLE Normal 4480 2256 992 768
RECTANGLE Normal 1600 224 1168 -304
RECTANGLE Normal 4192 368 3808 -128
RECTANGLE Normal 688 208 288 -336
RECTANGLE Normal 4432 704 1040 -416
