Version 4
SHEET 1 1656 1156
WIRE -288 -496 -336 -496
WIRE -336 -464 -336 -496
WIRE 160 -464 112 -464
WIRE 176 -464 160 -464
WIRE -288 -416 -288 -496
WIRE -320 -400 -624 -400
WIRE 112 -400 112 -464
WIRE -128 -384 -256 -384
WIRE 80 -384 -128 -384
WIRE -320 -368 -352 -368
WIRE 256 -368 144 -368
WIRE -624 -352 -624 -400
WIRE 80 -352 48 -352
WIRE -288 -304 -288 -352
WIRE -256 -304 -288 -304
WIRE -240 -304 -256 -304
WIRE 112 -304 112 -336
WIRE -352 -256 -352 -368
WIRE -240 -256 -352 -256
WIRE -128 -256 -128 -384
WIRE -128 -256 -160 -256
WIRE -624 -240 -624 -272
WIRE 256 -240 256 -368
WIRE 384 -240 256 -240
WIRE 512 -240 480 -240
WIRE 528 -240 512 -240
WIRE 48 -208 48 -352
WIRE 112 -208 48 -208
WIRE 144 -208 112 -208
WIRE 384 -192 256 -192
WIRE -352 -160 -352 -256
WIRE 144 -128 112 -128
WIRE 160 -128 144 -128
WIRE 112 -80 112 -128
WIRE 48 -64 48 -208
WIRE 80 -64 48 -64
WIRE 256 -48 256 -192
WIRE 256 -48 144 -48
WIRE -352 -32 -352 -80
WIRE 80 -32 -352 -32
WIRE 752 -32 608 -32
WIRE 896 -32 752 -32
WIRE 112 16 112 -16
WIRE 896 32 896 -32
WIRE 608 48 608 -32
WIRE -704 80 -736 80
WIRE -672 80 -704 80
WIRE -736 160 -736 80
WIRE 608 176 608 128
WIRE 896 176 896 112
WIRE 752 224 672 224
WIRE 832 224 752 224
WIRE -736 288 -736 240
WIRE 752 320 752 224
WIRE 608 368 608 272
WIRE 688 368 608 368
WIRE 752 448 752 416
WIRE 352 464 256 464
WIRE 432 464 352 464
WIRE 256 496 256 464
WIRE 896 512 896 272
WIRE 1184 512 896 512
WIRE 1360 512 1184 512
WIRE 432 592 432 464
WIRE 256 640 256 576
WIRE 368 640 256 640
WIRE -352 720 -352 -32
WIRE 256 720 256 640
WIRE 608 720 608 368
WIRE 896 720 896 512
WIRE 320 768 -416 768
WIRE 432 768 432 688
WIRE 432 768 320 768
WIRE 544 768 432 768
WIRE 832 768 544 768
WIRE 1360 800 1360 512
WIRE 256 848 256 816
WIRE -352 864 -352 816
WIRE 608 864 608 816
WIRE 896 896 896 816
WIRE 1360 928 1360 864
WIRE 608 976 608 944
WIRE -352 1040 -352 944
WIRE 256 1056 256 928
WIRE 496 1056 464 1056
WIRE 560 1056 496 1056
WIRE 784 1056 752 1056
WIRE 848 1056 784 1056
WIRE 608 1136 608 1072
WIRE 896 1136 896 1072
FLAG 1360 928 0
FLAG -736 288 0
FLAG -624 -240 0
FLAG -704 80 Vcc
FLAG -256 -304 Vcc
FLAG -336 -464 0
FLAG 160 -464 Vcc
FLAG 144 -128 Vcc
FLAG 112 16 0
FLAG 112 -304 0
FLAG 512 -240 Vq
FLAG 1184 512 Vo
FLAG 112 -208 Vo
FLAG 752 448 0
FLAG 752 -32 Vcc
FLAG 896 1136 0
FLAG 784 1056 Vq
FLAG 256 1056 0
FLAG 352 464 Vcc
FLAG -352 1040 0
FLAG 608 1136 0
FLAG 496 1056 Vq_n
FLAG 496 -192 Vq_n
SYMBOL res -368 -176 R0
SYMATTR InstName R1
SYMATTR Value 1k
SYMBOL res -144 -272 R90
WINDOW 0 0 56 VBottom 2
WINDOW 3 32 56 VTop 2
SYMATTR InstName R2
SYMATTR Value 1k
SYMBOL cap 1344 800 R0
SYMATTR InstName C1
SYMATTR Value 2µ
SYMBOL voltage -624 -368 R0
WINDOW 123 0 0 Left 2
WINDOW 39 0 0 Left 2
SYMATTR InstName V1
SYMATTR Value 5
SYMBOL voltage -736 144 R0
WINDOW 123 0 0 Left 2
WINDOW 39 0 0 Left 2
SYMATTR InstName V2
SYMATTR Value 12
SYMBOL Opamps\\UniversalOpamp2 -288 -384 M180
SYMATTR InstName U1
SYMBOL Opamps\\UniversalOpamp2 112 -368 R0
SYMATTR InstName U2
SYMBOL Opamps\\UniversalOpamp2 112 -48 R0
SYMATTR InstName U3
SYMBOL Digital\\srflop 432 -288 R0
WINDOW 3 -40 28 Left 2
SYMATTR Value Vhigh=5
SYMATTR InstName A1
SYMBOL nmos 848 976 R0
SYMATTR InstName M1
SYMBOL pnp 832 272 M180
SYMATTR InstName Q1
SYMATTR Value BC557B
SYMBOL pnp 672 272 R180
SYMATTR InstName Q2
SYMATTR Value BC557B
SYMBOL pnp 688 416 M180
SYMATTR InstName Q3
SYMATTR Value BC557B
SYMBOL res 592 32 R0
SYMATTR InstName R3
SYMATTR Value 100
SYMBOL npn 832 720 R0
SYMATTR InstName Q4
SYMATTR Value BC547B
SYMBOL npn 544 720 R0
SYMATTR InstName Q5
SYMATTR Value BC547B
SYMBOL res 592 848 R0
SYMATTR InstName R4
SYMATTR Value 100
SYMBOL npn 320 720 M0
SYMATTR InstName Q6
SYMATTR Value BC547B
SYMBOL npn 368 592 R0
SYMATTR InstName Q7
SYMATTR Value BC547B
SYMBOL res 240 480 R0
SYMATTR InstName R5
SYMATTR Value 4.7k
SYMBOL res 240 832 R0
SYMATTR InstName R6
SYMATTR Value 100
SYMBOL npn -416 720 R0
SYMATTR InstName Q8
SYMATTR Value BC547B
SYMBOL res -368 848 R0
SYMATTR InstName R7
SYMATTR Value 100
SYMBOL nmos 560 976 R0
SYMATTR InstName M2
SYMBOL res 880 880 R0
SYMATTR InstName R8
SYMATTR Value 100
SYMBOL res 880 16 R0
SYMATTR InstName R9
SYMATTR Value 100
TEXT -1072 -56 Left 2 !.tran 0 60m 10m startup uic
TEXT 1016 -232 Left 2 !.model PMOS PMOS(Vto=-8, Kp=2e-3)
TEXT 1024 -176 Left 2 !.model NMOS NMOS(Vto=1,Kp=2e-3)
