Version 4
SHEET 1 4344 980
WIRE 2176 -272 2096 -272
WIRE 2336 -272 2240 -272
WIRE 2096 -176 2096 -272
WIRE 2160 -176 2096 -176
WIRE 2336 -176 2336 -272
WIRE 2336 -176 2240 -176
WIRE 2368 -176 2336 -176
WIRE 2384 -176 2368 -176
WIRE 2336 -112 2336 -176
WIRE 2096 -96 2096 -176
WIRE 2096 16 2096 -16
WIRE 2336 48 2336 -32
WIRE -176 96 -176 80
WIRE -112 96 -176 96
WIRE -176 128 -176 96
WIRE -112 128 -112 96
WIRE 2576 144 2512 144
WIRE 2736 144 2640 144
WIRE 848 192 576 192
WIRE 1008 192 928 192
WIRE 1376 192 1008 192
WIRE 1568 208 1440 208
WIRE 1584 208 1568 208
WIRE 1712 208 1584 208
WIRE 1008 224 1008 192
WIRE 1376 224 1328 224
WIRE 576 240 576 192
WIRE 2512 256 2512 144
WIRE 2512 256 2304 256
WIRE 2576 256 2512 256
WIRE 2736 256 2736 144
WIRE 2736 256 2656 256
WIRE 2992 256 2736 256
WIRE 3072 256 2992 256
WIRE 2736 288 2736 256
WIRE 4000 288 4000 272
WIRE 2304 304 2304 256
WIRE 4000 320 4000 288
WIRE 4176 320 4176 272
WIRE 1008 336 1008 304
WIRE 576 352 576 320
WIRE 1328 352 1328 224
WIRE 1360 352 1328 352
WIRE 1568 352 1568 208
WIRE 1568 352 1440 352
WIRE 1328 384 1328 352
WIRE 2736 400 2736 368
WIRE 2304 416 2304 384
WIRE 4000 432 4000 400
WIRE 4176 432 4176 400
WIRE 1328 496 1328 464
WIRE 2192 768 2128 768
WIRE 2352 768 2272 768
WIRE 2480 768 2352 768
WIRE 2352 816 2352 768
WIRE 2480 816 2480 768
WIRE 2128 848 2128 768
WIRE 2352 928 2352 880
WIRE 2480 928 2480 896
WIRE 2128 960 2128 928
FLAG -112 128 0
FLAG -176 208 -15V
FLAG -176 0 15V
FLAG 576 352 0
FLAG 1008 336 0
FLAG 1408 240 15V
FLAG 1408 176 -15V
FLAG 1328 496 0
FLAG 2352 928 0
FLAG 2128 960 0
FLAG 2352 768 LC
FLAG 1584 208 error
FLAG 2480 928 0
FLAG 2304 416 0
FLAG 2736 400 0
FLAG 2992 256 F
FLAG 4000 432 0
FLAG 4000 288 In
FLAG 4176 432 0
FLAG 4176 272 a
FLAG 2336 48 0
FLAG 2096 16 0
FLAG 2368 -176 comp
SYMBOL voltage -176 -16 R0
WINDOW 123 0 0 Left 0
WINDOW 39 0 0 Left 0
SYMATTR InstName V1
SYMATTR Value 15
SYMBOL voltage -176 112 R0
WINDOW 123 0 0 Left 0
WINDOW 39 0 0 Left 0
SYMATTR InstName V2
SYMATTR Value 15
SYMBOL voltage 576 224 R0
WINDOW 123 24 124 Left 2
WINDOW 39 0 0 Left 0
SYMATTR Value2 AC 1
SYMATTR InstName V6
SYMATTR Value ""
SYMBOL Opamps\\opamp2 1408 272 M180
SYMATTR InstName U1
SYMATTR Value AD817
SYMBOL res 944 176 R90
WINDOW 0 0 56 VBottom 2
WINDOW 3 32 56 VTop 2
SYMATTR InstName R1
SYMATTR Value 100
SYMBOL res 1024 320 R180
WINDOW 0 36 76 Left 2
WINDOW 3 36 40 Left 2
SYMATTR InstName R2
SYMATTR Value {R}
SYMBOL res 1456 336 R90
WINDOW 0 0 56 VBottom 2
WINDOW 3 32 56 VTop 2
SYMATTR InstName R3
SYMATTR Value {R}
SYMBOL res 1344 480 R180
WINDOW 0 36 76 Left 2
WINDOW 3 36 40 Left 2
SYMATTR InstName R4
SYMATTR Value 100
SYMBOL ind 2176 784 R270
WINDOW 0 32 56 VTop 2
WINDOW 3 5 56 VBottom 2
SYMATTR InstName Lf1
SYMATTR Value 33µ
SYMBOL cap 2336 816 R0
SYMATTR InstName Cf1
SYMATTR Value 330n
SYMBOL voltage 2128 832 R0
WINDOW 123 24 124 Left 2
WINDOW 39 0 0 Left 0
SYMATTR Value2 AC 1
SYMATTR InstName V3
SYMATTR Value ""
SYMBOL res 2464 800 R0
SYMATTR InstName R5
SYMATTR Value 8
SYMBOL voltage 2304 288 R0
WINDOW 123 24 124 Left 2
WINDOW 39 0 0 Left 0
SYMATTR Value2 AC 1
SYMATTR InstName V4
SYMATTR Value ""
SYMBOL res 2672 240 R90
WINDOW 0 0 56 VBottom 2
WINDOW 3 32 56 VTop 2
SYMATTR InstName R6
SYMATTR Value 19k
SYMBOL res 2752 384 R180
WINDOW 0 36 76 Left 2
WINDOW 3 36 40 Left 2
SYMATTR InstName R7
SYMATTR Value 1k
SYMBOL voltage 4000 304 R0
WINDOW 123 24 124 Left 2
WINDOW 39 0 0 Left 0
SYMATTR Value2 AC 1
SYMATTR InstName V5
SYMATTR Value ""
SYMBOL bv 4176 304 R0
SYMATTR InstName B1
SYMATTR Value V=V(In)*20
SYMBOL cap 2640 128 R90
WINDOW 0 0 32 VBottom 2
WINDOW 3 32 32 VTop 2
SYMATTR InstName C1
SYMATTR Value 82p
SYMBOL res 2256 -192 R90
WINDOW 0 0 56 VBottom 2
WINDOW 3 32 56 VTop 2
SYMATTR InstName R10
SYMATTR Value 10k
SYMBOL cap 2240 -288 R90
WINDOW 0 0 32 VBottom 2
WINDOW 3 32 32 VTop 2
SYMATTR InstName C3
SYMATTR Value 100p
SYMBOL res 2320 -128 R0
SYMATTR InstName R11
SYMATTR Value 1k
SYMBOL voltage 2096 -112 R0
WINDOW 123 24 124 Left 2
WINDOW 39 0 0 Left 0
SYMATTR Value2 AC 1
SYMATTR InstName V7
SYMATTR Value ""
TEXT -208 312 Left 2 !.ac dec 10000 0.1 100Meg
TEXT 688 -480 Left 2 !.include LM318.301
TEXT 688 -512 Left 2 !.include LM833.301
TEXT 688 -448 Left 2 !.include AD817.301
TEXT 816 624 Left 2 !.param R=470k
