*************** Power Bipolar Electrical Parameters ********************
** Product: FFB2907A
** PNP Multi-Chip General Purpose Amplifier
************************************************************************
.MODEL FFB2907A PNP
+ IS     = 650.6E-18       BF     = 231.7           NF     = 1                  
+ BR     = 3.563           NR     = 1               ISE    = 54.81E-15              
+ NE     = 1.829           ISC    = 0		    NC     = 2                
+ VAF    = 115.7           VAR    = 100             IKF    = 1.079             
+ IKR    = 0		   RB     = 10              RBM    = 0.0025            
+ IRB    = 2.51189E-6      RE     = 0.0284          RC     = 0.715               
+ CJE    = 19.82E-12	   VJE    = 0.75       	    MJE    = 0.3357          
+ CJC    = 14.76E-12       FC     = 0.5             VJC    = 0.75                
+ MJC    = 0.5383          TF     = 603.7E-12       TR     = 111.3E-9
+ XTB    = 1.5             EG     = 1.11            XTI    = 3
+ ITF	 = 0.65		   VTF	  = 5		    XTF    = 1.7
************************************************************************
** Creation: Apr.-02-2009   Rev: 0.0
** Fairchild Semiconductor
