*SRC=MMDT2222A;DI_MMDT2222A;BJTs NPN; Si;  40.0V  0.600A  300MHz   Diodes Inc. BJTs - Single device of dual 
.MODEL DI_MMDT2222A  NPN (IS=61.0f NF=1.00 BF=410 VAF=114 
+ IKF=0.121 ISE=14.8p NE=2.00 BR=4.00 NR=1.00 
+ VAR=24.0 IKR=0.300 RE=0.269 RB=1.08 RC=0.108 
+ XTB=1.5 CJE=27.7p VJE=1.10 MJE=0.500 CJC=15.3p VJC=0.300 
+ MJC=0.300 TF=496p TR=81.1n EG=1.12 )